$ NASTRAN input file created by the Patran 2011 input file translator on
$  July      08, 2014 at 18:04:29.
$ Direct Text Input for Nastran System Cell Section
$ Direct Text Input for File Management Section
$ Direct Text Input for Executive Control
$ Normal Modes Analysis, Database
SOL 103
CEND
$ Direct Text Input for Global Case Control Data
MEFFMASS(GRID=1,ALL)=YES
TITLE = MSC.Nastran job created on 08-Jul-14 at 18:03:02
ECHO = NONE
RESVEC = NO
SUBCASE 1
   SUBTITLE=Default
   METHOD = 1
   SPC = 2
   VECTOR(SORT1,REAL)=ALL
$ Direct Text Input for this Subcase
BEGIN BULK
$ Direct Text Input for Bulk Data
PARAM    POST    0
PARAM    GRDPNT  0
PARAM   PRTMAXIM YES
EIGRL    1                       5       0                       MASS
$ Elements and Element Properties for region : beam
PBARL    1       1               ROD
        .05
$ Pset: "beam" will be imported as: "pbarl.1"
CBAR     1       1       1       2       0.     1.       0.
CBAR     2       1       2       3       0.     1.       0.
$ Referenced Material Records
$ Material Record : al
$ Description of Material : Date: 08-Jul-14           Time: 18:00:25
MAT1     1      7.+10           .35     2700.
$ Nodes of the Entire Model
GRID     1               0.      0.      0.
GRID     2              .5       0.      0.
GRID     3              1.       0.      0.
$ Loads for Load Case : Default
SPCADD   2       1
$ Displacement Constraints of Load Set : fixed
SPC1     1       123456  1
$ Referenced Coordinate Frames
ENDDATA 78cf24c8
